Examples/InverterModels/PVSystem2/InvControl2/MonitoredVoltage/Local_voltage_2_VLN_Node.Txt

LINE-GROUND and LINE-LINE VOLTAGES BY BUS & NODE

Bus  Node    VLN (kV)   Angle      pu     Base kV    Node-Node   VLL (kV)  Angle      pu

A .. 1       8.1798 /_    9.1    1.0267    13.800        1-2     14.171 /_   39.2    1.0269
   - 2       8.1879 /_ -110.8    1.0277    13.800        2-3     14.173 /_  -80.8     1.027
   - 3       8.1815 /_  129.2    1.0269    13.800        3-1     14.176 /_  159.2    1.0273
B .. 1       8.2094 /_   12.1    1.0304    13.800        1-2     14.184 /_   41.8    1.0279
   - 2       8.1465 /_ -108.2    1.0225    13.800        2-3     14.063 /_  -78.1     1.019
   - 3        8.117 /_  132.1    1.0188    13.800        3-1     14.142 /_  162.3    1.0248
